---- qbsp / ericw-tools 2.0.0-alpha8-29-gb2f23f76 ----

--- Options Summary ---
    "nocolor" was set to "1" (from command line)

Input file: D:\Columbia College Work\Year 2\Semester 1\Game Design II\QuakeMapLab\quake\lab-compile.map
Output file: D:\Columbia College Work\Year 2\Semester 1\Game Design II\QuakeMapLab\quake\lab.bsp

INFO: using built-in palette.
      797 entities
       60 unique textures
    5,340 texinfos
    8,652 unique planes

INFO: world extents calculated to 9048 units
     3,497 brushes
    20,092 sides
    10,423 side bevels

            0 texture frames added
WARNING: unable to find texture skip
Processing hull 0...
    1,835 SOLID brushes
        7 SKY brushes
    1,646 MIST | Q2_UNUSED_8 brushes
    3,488 brushes total
    20,040 visible sides
INFO: calculating BSP for 3488 brushes with 20040 sides
     3,488 brushes
    20,040 visible faces
    20,869 nodes
    18,680 expensive split nodes
     2,189 mid-split nodes
    20,870 leaves
    10,949 EMPTY leafs
       990 SKY leafs
     7,108 SOLID leafs
     1,823 MIST | Q2_UNUSED_8 leafs
    20,870 leafs total
    48 max tree height
    20 avg tree height
    20 tiny portals
    94,333 tree portals
    1,143 outside leaves
    0 detail filled leafs
     3,488 brushes
    14,715 visible faces
     5,325 non-visible faces
    14,072 nodes
     2,061 non-visible nodes
    14,072 expensive split nodes
    14,073 leaves
     6,990 EMPTY leafs
       273 SKY leafs
     5,003 SOLID leafs
     1,807 MIST | Q2_UNUSED_8 leafs
    14,073 leafs total
    47 max tree height
    21 avg tree height
    18 tiny portals
    68,789 tree portals
    485 outside leaves
    0 detail filled leafs
    18 tiny portals
    68,789 tree portals
    26,728 sides visible
    25,358 makefaces
     9,871 merged
     2,356 subdivided
    2,458 nodes pruned
    1 tiny portals
     8,585 player-occupiable leaves
     4,669 clusters of leaves
    17,940 vis portals
     3,030 SOLID leafs
       273 SKY leafs
     6,505 EMPTY leafs
     1,807 MIST | Q2_UNUSED_8 leafs
    11,615 leafs total
    44 max tree height
    19 avg tree height
    12,365 edges added by tjunctions
    15,956 faces optimized through MWT
    45,388 triangles computed from MWT
     3,682 faces created via optimization of MWT triangles
    46,144 edges
    21,525 faces
Processing hull 1...
Processing hull 2...
WARNING: worldspawn at 0 0 0 has long value for key wad (length 930 >= 127)
Writing lab.bsp as Quake BSP bsp29
Wrote lab.bsp

count   lump name    byte size 
      5 models              320
   7129 planes           142580
  28983 vertexes         347796
  11659 nodes            279816
   4506 texinfos         180240
  26233 faces            524660
  16280 clipnodes        130240
   8635 leafs            241780
  35091 marksurfaces      70182
  55663 edges            222652
 109357 surfedges        437428
     60 textures         657784
        lightdata             0
        visdata               0
        entdata           14848

5.373s seconds elapsed


