---- qbsp / ericw-tools 2.0.0-alpha8-29-gb2f23f76 ----

--- Options Summary ---
    "nocolor" was set to "1" (from command line)

Input file: D:\Columbia College Work\Year 2\Semester 1\Game Design II\QuakeMapLab\quake\lab-compile.map
Output file: D:\Columbia College Work\Year 2\Semester 1\Game Design II\QuakeMapLab\quake\lab.bsp

INFO: using built-in palette.
        4 entities
       16 unique textures
      308 texinfos
    1,050 unique planes

INFO: world extents calculated to 5096 units
      382 brushes
    2,394 sides
      579 side bevels

            1 texture frames added
WARNING: unable to find texture skip
Processing hull 0...
    382 SOLID brushes
    382 brushes total
    2,394 visible sides
INFO: calculating BSP for 382 brushes with 2394 sides
      382 brushes
    2,394 visible faces
    3,900 nodes
    3,184 expensive split nodes
      716 mid-split nodes
    3,901 leaves
    1,980 EMPTY leafs
    1,921 SOLID leafs
    3,901 leafs total
    27 max tree height
    15 avg tree height
    1 tiny portals
    16,302 tree portals
WARNING: Reached occupant "info_player_start" at (-1000 0 24), no filling performed.
Leak file written to lab.pts
           10 portals written to lab.leak.prt
    1 tiny portals
    16,302 tree portals
    5,359 sides visible
    5,359 makefaces
    1,223 merged
    2,434 subdivided
    237 nodes pruned
    1,980 EMPTY leafs
    1,684 SOLID leafs
    3,664 leafs total
    27 max tree height
    15 avg tree height
     4,353 edges added by tjunctions
     6,388 faces optimized through MWT
    17,248 triangles computed from MWT
     1,100 faces created via optimization of MWT triangles
    16,575 edges
     7,670 faces
Processing hull 1...
WARNING: Reached occupant "info_player_start" at (-1000 0 24), no filling performed.
Processing hull 2...
WARNING: Reached occupant "info_player_start" at (-1000 0 24), no filling performed.
WARNING: worldspawn at 0 0 0 has long value for key wad (length 310 >= 127)
Writing lab.bsp as Quake BSP bsp29
Wrote lab.bsp

count   lump name    byte size 
      1 models               64
   1976 planes            39520
   8501 vertexes         102012
   3663 nodes             87912
    258 texinfos          10320
   7670 faces            153400
  58354 clipnodes        466832
   1981 leafs             55468
   8945 marksurfaces      17890
  16576 edges             66304
  32770 surfedges        131080
     17 textures         140792
        lightdata             0
        visdata               0
        entdata             491

0.650s seconds elapsed


