---- qbsp / ericw-tools 2.0.0-alpha8-29-gb2f23f76 ----

--- Options Summary ---
    "nocolor" was set to "1" (from command line)

Input file: D:\Columbia College Work\Year 2\Semester 1\Game Design II\QuakeMapLab\quake\lab-compile.map
Output file: D:\Columbia College Work\Year 2\Semester 1\Game Design II\QuakeMapLab\quake\lab.bsp

INFO: using built-in palette.
      786 entities
       46 unique textures
    5,043 texinfos
    8,566 unique planes

INFO: world extents calculated to 9048 units
     3,449 brushes
    19,760 sides
    10,383 side bevels

            0 texture frames added
WARNING: unable to find texture skip
Processing hull 0...
    1,786 SOLID brushes
        7 SKY brushes
    1,646 MIST | Q2_UNUSED_8 brushes
        1 DETAIL_WALL | Q2_UNUSED_8 brushes
    3,440 brushes total
    19,708 visible sides
INFO: calculating BSP for 3440 brushes with 19708 sides
     3,440 brushes
    19,708 visible faces
    20,656 nodes
    18,518 expensive split nodes
     2,138 mid-split nodes
    20,657 leaves
    10,810 EMPTY leafs
       981 SKY leafs
     7,042 SOLID leafs
     1,822 MIST | Q2_UNUSED_8 leafs
         2 DETAIL_WALL | Q2_UNUSED_8 leafs
    20,657 leafs total
    47 max tree height
    20 avg tree height
    19 tiny portals
    93,300 tree portals
    1,137 outside leaves
    0 detail filled leafs
     3,440 brushes
    14,543 visible faces
     5,165 non-visible faces
    14,044 nodes
     2,015 non-visible nodes
    14,044 expensive split nodes
    14,045 leaves
     6,970 EMPTY leafs
       281 SKY leafs
     4,981 SOLID leafs
     1,809 MIST | Q2_UNUSED_8 leafs
         4 DETAIL_WALL | Q2_UNUSED_8 leafs
    14,045 leafs total
    47 max tree height
    21 avg tree height
    18 tiny portals
    68,343 tree portals
    494 outside leaves
    0 detail filled leafs
    18 tiny portals
    68,343 tree portals
    26,613 sides visible
    25,234 makefaces
     9,805 merged
     2,265 subdivided
    2,419 nodes pruned
    1 tiny portals
     8,566 player-occupiable leaves
     4,643 clusters of leaves
    17,545 vis portals
     3,060 SOLID leafs
       281 SKY leafs
     6,476 EMPTY leafs
     1,809 MIST | Q2_UNUSED_8 leafs
    11,626 leafs total
    44 max tree height
    19 avg tree height
    12,301 edges added by tjunctions
    15,769 faces optimized through MWT
    44,928 triangles computed from MWT
     3,659 faces created via optimization of MWT triangles
    45,794 edges
    21,352 faces
Processing hull 1...
Processing hull 2...
WARNING: worldspawn at 0 0 0 has long value for key wad (length 667 >= 127)
Writing lab.bsp as Quake BSP bsp29
Wrote lab.bsp

count   lump name    byte size 
      5 models              320
   7034 planes           140680
  28779 vertexes         345348
  11670 nodes            280080
   4291 texinfos         171640
  26060 faces            521200
  16235 clipnodes        129880
   8616 leafs            241248
  35094 marksurfaces      70188
  55313 edges            221252
 108588 surfedges        434352
     46 textures         524908
        lightdata             0
        visdata               0
        entdata           13698

5.308s seconds elapsed


