---- qbsp / ericw-tools 2.0.0-alpha8-32-g47faf6c0 ----

--- Options Summary ---
    "nocolor" was set to "1" (from command line)

Input file: C:\Users\Mallios\Documents\GitHub\QuakeMapLab\quake\lab-compile.map
Output file: C:\Users\Mallios\Documents\GitHub\QuakeMapLab\quake\lab.bsp

INFO: using built-in palette.
fs::addArchive: WARNING: archive 'D:/quake-leveldesign-starterkit-20240930-windows/extras/quake/prototype-wad/prototype_uniform_colors_1_3.wad' not found
fs::addArchive: WARNING: archive 'D:/quake-leveldesign-starterkit-20240930-windows/extras/quake/prototype-wad/prototype_basic_1_3.wad' not found
fs::addArchive: WARNING: archive 'D:/quake-leveldesign-starterkit-20240930-windows/extras/quake/prototype-wad/prototype_buttons_1_3.wad' not found
fs::addArchive: WARNING: archive 'D:/quake-leveldesign-starterkit-20240930-windows/extras/quake/prototype-wad/prototype_skies_1_3.wad' not found
fs::addArchive: WARNING: archive 'D:/Columbia College Work/Year 2/Semester 1/Game Design II/QuakeMapLab/WADs/praevus.wad' not found
fs::addArchive: WARNING: archive 'D:/Columbia College Work/Year 2/Semester 1/Game Design II/QuakeMapLab/WADs/DktE1.wad' not found
fs::addArchive: WARNING: archive 'D:/Columbia College Work/Year 2/Semester 1/Game Design II/QuakeMapLab/WADs/DktE3.wad' not found
fs::addArchive: WARNING: archive 'D:/Columbia College Work/Year 2/Semester 1/Game Design II/QuakeMapLab/WADs/rmq_trans.wad' not found
fs::addArchive: WARNING: archive 'D:/Columbia College Work/Year 2/Semester 1/Game Design II/QuakeMapLab/WADs/jug.wad' not found
fs::addArchive: WARNING: archive 'D:/Columbia College Work/Year 2/Semester 1/Game Design II/QuakeMapLab/WADs/kj_ogro_ice.wad' not found
      899 entities
       47 unique textures
    5,238 texinfos
    8,648 unique planes

INFO: world extents calculated to 9048 units
     3,506 brushes
    20,146 sides
    10,421 side bevels

            0 texture frames added
WARNING: unable to find texture skip
Processing hull 0...
    1,844 SOLID brushes
        7 SKY brushes
    1,646 MIST | Q2_UNUSED_8 brushes
    3,497 brushes total
    20,094 visible sides
INFO: calculating BSP for 3497 brushes with 20094 sides
     3,497 brushes
    20,094 visible faces
    20,882 nodes
    18,702 expensive split nodes
     2,180 mid-split nodes
    20,883 leaves
    10,951 EMPTY leafs
       992 SKY leafs
     7,117 SOLID leafs
     1,823 MIST | Q2_UNUSED_8 leafs
    20,883 leafs total
    48 max tree height
    20 avg tree height
    20 tiny portals
    94,365 tree portals
    1,144 outside leaves
    0 detail filled leafs
     3,497 brushes
    14,733 visible faces
     5,361 non-visible faces
    14,075 nodes
     2,058 non-visible nodes
    14,075 expensive split nodes
    14,076 leaves
     7,007 EMPTY leafs
       273 SKY leafs
     4,989 SOLID leafs
     1,807 MIST | Q2_UNUSED_8 leafs
    14,076 leafs total
    47 max tree height
    21 avg tree height
    19 tiny portals
    68,775 tree portals
    487 outside leaves
    0 detail filled leafs
    19 tiny portals
    68,775 tree portals
    26,648 sides visible
    25,278 makefaces
     9,807 merged
     2,381 subdivided
    2,449 nodes pruned
    2 tiny portals
     8,600 player-occupiable leaves
     4,684 clusters of leaves
    18,015 vis portals
     3,027 SOLID leafs
       273 SKY leafs
     6,520 EMPTY leafs
     1,807 MIST | Q2_UNUSED_8 leafs
    11,627 leafs total
    44 max tree height
    19 avg tree height
    12,407 edges added by tjunctions
    15,968 faces optimized through MWT
    45,455 triangles computed from MWT
     3,715 faces created via optimization of MWT triangles
    46,217 edges
    21,567 faces
Processing hull 1...
Processing hull 2...
WARNING: worldspawn at 0 0 0 has long value for key wad (length 1515 >= 127)
Writing lab.bsp as Quake BSP bsp29
Wrote lab.bsp

count   lump name    byte size 
      5 models              320
   7120 planes           142400
  29012 vertexes         348144
  11671 nodes            280104
   4417 texinfos         176680
  26275 faces            525500
  16333 clipnodes        130664
   8650 leafs            242200
  35148 marksurfaces      70296
  55736 edges            222944
 109505 surfedges        438020
     47 textures         584112
        lightdata             0
        visdata               0
        entdata           23658

5.692s seconds elapsed


