---- qbsp / ericw-tools 2.0.0-alpha8-29-gb2f23f76 ----

--- Options Summary ---
    "nocolor" was set to "1" (from command line)

Input file: D:\Columbia College Work\Year 2\Semester 1\Game Design II\QuakeMapLab\quake\lab-compile.map
Output file: D:\Columbia College Work\Year 2\Semester 1\Game Design II\QuakeMapLab\quake\lab.bsp

INFO: using built-in palette.
      785 entities
       46 unique textures
    5,045 texinfos
    8,566 unique planes

INFO: world extents calculated to 9048 units
     3,449 brushes
    19,760 sides
    10,383 side bevels

            0 texture frames added
WARNING: unable to find texture skip
Processing hull 0...
    1,787 SOLID brushes
        7 SKY brushes
    1,646 MIST | Q2_UNUSED_8 brushes
    3,440 brushes total
    19,708 visible sides
INFO: calculating BSP for 3440 brushes with 19708 sides
     3,440 brushes
    19,708 visible faces
    20,656 nodes
    18,518 expensive split nodes
     2,138 mid-split nodes
    20,657 leaves
    10,810 EMPTY leafs
       981 SKY leafs
     7,044 SOLID leafs
     1,822 MIST | Q2_UNUSED_8 leafs
    20,657 leafs total
    47 max tree height
    20 avg tree height
    19 tiny portals
    93,300 tree portals
    1,137 outside leaves
    0 detail filled leafs
     3,440 brushes
    14,539 visible faces
     5,169 non-visible faces
    14,042 nodes
     2,015 non-visible nodes
    14,042 expensive split nodes
    14,043 leaves
     6,969 EMPTY leafs
       281 SKY leafs
     4,984 SOLID leafs
     1,809 MIST | Q2_UNUSED_8 leafs
    14,043 leafs total
    47 max tree height
    21 avg tree height
    18 tiny portals
    68,297 tree portals
    494 outside leaves
    0 detail filled leafs
    18 tiny portals
    68,297 tree portals
    26,583 sides visible
    25,209 makefaces
     9,790 merged
     2,265 subdivided
    2,419 nodes pruned
    1 tiny portals
     8,565 player-occupiable leaves
     4,648 clusters of leaves
    17,567 vis portals
     3,059 SOLID leafs
       281 SKY leafs
     6,475 EMPTY leafs
     1,809 MIST | Q2_UNUSED_8 leafs
    11,624 leafs total
    44 max tree height
    19 avg tree height
    12,316 edges added by tjunctions
    15,761 faces optimized through MWT
    44,926 triangles computed from MWT
     3,666 faces created via optimization of MWT triangles
    45,761 edges
    21,350 faces
Processing hull 1...
Processing hull 2...
WARNING: worldspawn at 0 0 0 has long value for key wad (length 667 >= 127)
Writing lab.bsp as Quake BSP bsp29
Wrote lab.bsp

count   lump name    byte size 
      5 models              320
   7034 planes           140680
  28773 vertexes         345276
  11668 nodes            280032
   4290 texinfos         171600
  26058 faces            521160
  16235 clipnodes        129880
   8615 leafs            241220
  35086 marksurfaces      70172
  55280 edges            221120
 108581 surfedges        434324
     46 textures         524908
        lightdata             0
        visdata               0
        entdata           13698

5.394s seconds elapsed


