---- qbsp / ericw-tools 2.0.0-alpha8-29-gb2f23f76 ----

--- Options Summary ---
    "nocolor" was set to "1" (from command line)

Input file: D:\Columbia College Work\Year 2\Semester 1\Game Design II\QuakeMapLab\quake\lab-compile.map
Output file: D:\Columbia College Work\Year 2\Semester 1\Game Design II\QuakeMapLab\quake\lab.bsp

INFO: using built-in palette.
      681 entities
       19 unique textures
    5,187 texinfos
    9,018 unique planes

INFO: world extents calculated to 9048 units
     3,510 brushes
    20,933 sides
     9,552 side bevels

            1 texture frames added
WARNING: unable to find texture skip
Processing hull 0...
    2,026 SOLID brushes
        8 SKY brushes
    1,468 MIST | Q2_UNUSED_8 brushes
    3,502 brushes total
    20,885 visible sides
INFO: calculating BSP for 3502 brushes with 20885 sides
     3,502 brushes
    20,885 visible faces
    20,349 nodes
    18,789 expensive split nodes
     1,560 mid-split nodes
    20,350 leaves
    10,850 EMPTY leafs
       700 SKY leafs
     7,165 SOLID leafs
     1,635 MIST | Q2_UNUSED_8 leafs
    20,350 leafs total
    49 max tree height
    20 avg tree height
    22 tiny portals
    92,222 tree portals
WARNING: Reached occupant "monster_demon1" at (-16 248 -272), no filling performed.
Leak file written to lab.pts
            7 portals written to lab.leak.prt
    22 tiny portals
    92,222 tree portals
    33,566 sides visible
    32,330 makefaces
    10,152 merged
     3,162 subdivided
    1,947 nodes pruned
    10,850 EMPTY leafs
       700 SKY leafs
     5,218 SOLID leafs
     1,635 MIST | Q2_UNUSED_8 leafs
    18,403 leafs total
    47 max tree height
    20 avg tree height
    15,508 edges added by tjunctions
    22,749 faces optimized through MWT
    62,315 triangles computed from MWT
     4,250 faces created via optimization of MWT triangles
    62,974 edges
    29,590 faces
Processing hull 1...
WARNING: Reached occupant "info_player_deathmatch" at (-592 -368 24), no filling performed.
Processing hull 2...
WARNING: worldspawn at 0 0 0 has long value for key wad (length 410 >= 127)
LIMITS EXCEEDED ON dclipnode_t::children
NOTE: limits exceeded for Quake BSP - switching to Quake BSP2
Writing lab.bsp as Quake BSP2 bsp2
Wrote lab.bsp

count   lump name    byte size 
      9 models              576
  10135 planes           202700
  37392 vertexes         448704
  18450 nodes            811800
   4498 texinfos         179920
  34294 faces            960232
 141009 clipnodes       1692108
  13242 leafs            582648
  43880 marksurfaces     175520
  72483 edges            579864
 143102 surfedges        572408
     20 textures         222864
        lightdata             0
        visdata               0
        entdata            8230

5.262s seconds elapsed


