---- qbsp / ericw-tools 2.0.0-alpha8-29-gb2f23f76 ----

--- Options Summary ---
    "nocolor" was set to "1" (from command line)

Input file: D:\Columbia College Work\Year 2\Semester 1\Game Design II\QuakeMapLab\quake\lab-compile.map
Output file: D:\Columbia College Work\Year 2\Semester 1\Game Design II\QuakeMapLab\quake\lab.bsp

INFO: using built-in palette.
      808 entities
       19 unique textures
    6,001 texinfos
    9,950 unique planes

INFO: world extents calculated to 9048 units
     4,011 brushes
    23,483 sides
    10,968 side bevels

            1 texture frames added
WARNING: unable to find texture skip
Processing hull 0...
    2,044 SOLID brushes
        7 SKY brushes
    1,952 MIST | Q2_UNUSED_8 brushes
    4,003 brushes total
    23,435 visible sides
INFO: calculating BSP for 4003 brushes with 23435 sides
     4,003 brushes
    23,435 visible faces
    21,743 nodes
    20,181 expensive split nodes
     1,562 mid-split nodes
    21,744 leaves
    11,569 EMPTY leafs
       695 SKY leafs
     7,319 SOLID leafs
     2,161 MIST | Q2_UNUSED_8 leafs
    21,744 leafs total
    49 max tree height
    20 avg tree height
    26 tiny portals
    98,705 tree portals
    1,026 outside leaves
    0 detail filled leafs
     4,003 brushes
    17,009 visible faces
     6,426 non-visible faces
    16,173 nodes
     2,405 non-visible nodes
    16,173 expensive split nodes
    16,174 leaves
     7,958 EMPTY leafs
       254 SKY leafs
     5,813 SOLID leafs
     2,149 MIST | Q2_UNUSED_8 leafs
    16,174 leafs total
    46 max tree height
    21 avg tree height
    26 tiny portals
    78,653 tree portals
    595 outside leaves
    0 detail filled leafs
    26 tiny portals
    78,653 tree portals
    32,145 sides visible
    30,515 makefaces
    12,404 merged
     3,438 subdivided
    2,912 nodes pruned
    2 tiny portals
     9,766 player-occupiable leaves
     5,145 clusters of leaves
    18,421 vis portals
     3,496 SOLID leafs
       254 SKY leafs
     7,363 EMPTY leafs
     2,149 MIST | Q2_UNUSED_8 leafs
    13,262 leafs total
    43 max tree height
    19 avg tree height
    15,012 edges added by tjunctions
    19,348 faces optimized through MWT
    54,951 triangles computed from MWT
     4,391 faces created via optimization of MWT triangles
    55,652 edges
    25,940 faces
Processing hull 1...
Processing hull 2...
WARNING: worldspawn at 0 0 0 has long value for key wad (length 410 >= 127)
Writing lab.bsp as Quake BSP bsp29
Wrote lab.bsp

count   lump name    byte size 
      9 models              576
   7587 planes           151740
  33957 vertexes         407484
  13309 nodes            319416
   5090 texinfos         203600
  30644 faces            612880
  17153 clipnodes        137224
   9823 leafs            275044
  41832 marksurfaces      83664
  65161 edges            260644
 128048 surfedges        512192
     20 textures         222864
        lightdata             0
        visdata               0
        entdata            8283

6.780s seconds elapsed


