---- qbsp / ericw-tools 2.0.0-alpha8-29-gb2f23f76 ----

--- Options Summary ---
    "nocolor" was set to "1" (from command line)

Input file: D:\Columbia College Work\Year 2\Semester 1\Game Design II\QuakeMapLab\quake\lab-compile.map
Output file: D:\Columbia College Work\Year 2\Semester 1\Game Design II\QuakeMapLab\quake\lab.bsp

INFO: using built-in palette.
fs::addArchive: WARNING: archive 'C:/Users/Mallios/Documents/GitHub/QuakeMapLab/WADs/praevus.wad' not found
fs::addArchive: WARNING: archive 'C:/Users/Mallios/Documents/GitHub/QuakeMapLab/WADs/DktE1.wad' not found
fs::addArchive: WARNING: archive 'C:/Users/Mallios/Documents/GitHub/QuakeMapLab/WADs/DktE3.wad' not found
fs::addArchive: WARNING: archive 'C:/Users/Mallios/Documents/GitHub/QuakeMapLab/WADs/rmq_trans.wad' not found
fs::addArchive: WARNING: archive 'C:/Users/Mallios/Documents/GitHub/QuakeMapLab/WADs/jug.wad' not found
fs::addArchive: WARNING: archive 'C:/Users/Mallios/Documents/GitHub/QuakeMapLab/WADs/kj_ogro_ice.wad' not found
    1,109 entities
       47 unique textures
    5,409 texinfos
    8,718 unique planes

INFO: world extents calculated to 5320 units
     3,553 brushes
    20,407 sides
    10,485 side bevels

            0 texture frames added
WARNING: unable to find texture skip
Processing hull 0...
    1,837 SOLID brushes
       10 SKY brushes
    1,673 MIST | Q2_UNUSED_8 brushes
       13 DETAIL_WALL | Q2_UNUSED_8 brushes
    3,533 brushes total
    20,297 visible sides
INFO: calculating BSP for 3533 brushes with 20297 sides
     3,533 brushes
    20,297 visible faces
    21,518 nodes
    18,216 expensive split nodes
     3,302 mid-split nodes
    21,519 leaves
    11,348 EMPTY leafs
       823 SKY leafs
     7,308 SOLID leafs
     2,019 MIST | Q2_UNUSED_8 leafs
        21 DETAIL_WALL | Q2_UNUSED_8 leafs
    21,519 leafs total
    47 max tree height
    20 avg tree height
    44 tiny portals
    96,237 tree portals
    1,523 outside leaves
    0 detail filled leafs
     3,533 brushes
    14,715 visible faces
     5,582 non-visible faces
    14,307 nodes
     2,387 non-visible nodes
    14,307 expensive split nodes
    14,308 leaves
     7,088 EMPTY leafs
       123 SKY leafs
     5,235 SOLID leafs
     1,847 MIST | Q2_UNUSED_8 leafs
        15 DETAIL_WALL | Q2_UNUSED_8 leafs
    14,308 leafs total
    49 max tree height
    21 avg tree height
    22 tiny portals
    70,204 tree portals
    682 outside leaves
    0 detail filled leafs
    22 tiny portals
    70,204 tree portals
    26,766 sides visible
    25,311 makefaces
    10,084 merged
     1,612 subdivided
    2,987 nodes pruned
    3 tiny portals
     8,376 player-occupiable leaves
     4,287 clusters of leaves
    16,746 vis portals
     2,945 SOLID leafs
       123 SKY leafs
     6,406 EMPTY leafs
     1,847 MIST | Q2_UNUSED_8 leafs
    11,321 leafs total
    46 max tree height
    19 avg tree height
    10,981 edges added by tjunctions
    14,923 faces optimized through MWT
    41,916 triangles computed from MWT
     3,279 faces created via optimization of MWT triangles
    43,032 edges
    20,118 faces
Processing hull 1...
Processing hull 2...
WARNING: worldspawn at 0 0 0 has long value for key wad (length 1306 >= 127)
Writing lab.bsp as Quake BSP bsp29
Wrote lab.bsp

count   lump name    byte size 
      4 models              256
   7146 planes           142920
  22797 vertexes         273564
  11387 nodes            273288
   4519 texinfos         180760
  20196 faces            403920
  17066 clipnodes        136528
   8447 leafs            236516
  28945 marksurfaces      57890
  43199 edges            172796
  84384 surfedges        337536
     47 textures         562352
        lightdata             0
        visdata               0
        entdata           34719

4.845s seconds elapsed


