---- qbsp / ericw-tools 2.0.0-alpha8-29-gb2f23f76 ----

--- Options Summary ---
    "nocolor" was set to "1" (from command line)

Input file: D:\Columbia College Work\Year 2\Semester 1\Game Design II\QuakeMapLab\quake\lab-compile.map
Output file: D:\Columbia College Work\Year 2\Semester 1\Game Design II\QuakeMapLab\quake\lab.bsp

INFO: using built-in palette.
fs::addArchive: WARNING: archive 'C:/Users/Mallios/Documents/GitHub/QuakeMapLab/WADs/praevus.wad' not found
fs::addArchive: WARNING: archive 'C:/Users/Mallios/Documents/GitHub/QuakeMapLab/WADs/DktE1.wad' not found
fs::addArchive: WARNING: archive 'C:/Users/Mallios/Documents/GitHub/QuakeMapLab/WADs/DktE3.wad' not found
fs::addArchive: WARNING: archive 'C:/Users/Mallios/Documents/GitHub/QuakeMapLab/WADs/rmq_trans.wad' not found
fs::addArchive: WARNING: archive 'C:/Users/Mallios/Documents/GitHub/QuakeMapLab/WADs/jug.wad' not found
fs::addArchive: WARNING: archive 'C:/Users/Mallios/Documents/GitHub/QuakeMapLab/WADs/kj_ogro_ice.wad' not found
    1,148 entities
       52 unique textures
    5,931 texinfos
    9,924 unique planes

INFO: world extents calculated to 5320 units
     3,606 brushes
    21,114 sides
    10,958 side bevels

            0 texture frames added
WARNING: unable to find texture skip
Processing hull 0...
    1,844 SOLID brushes
       10 SKY brushes
    1,719 MIST | Q2_UNUSED_8 brushes
       13 DETAIL_WALL | Q2_UNUSED_8 brushes
    3,586 brushes total
    21,004 visible sides
INFO: calculating BSP for 3586 brushes with 21004 sides
     3,586 brushes
    21,004 visible faces
    22,605 nodes
    19,120 expensive split nodes
     3,485 mid-split nodes
    22,606 leaves
    12,209 EMPTY leafs
       832 SKY leafs
     7,418 SOLID leafs
     2,126 MIST | Q2_UNUSED_8 leafs
        21 DETAIL_WALL | Q2_UNUSED_8 leafs
    22,606 leafs total
    61 max tree height
    20 avg tree height
    124 tiny portals
    101,832 tree portals
    1,543 outside leaves
    0 detail filled leafs
     3,586 brushes
    15,386 visible faces
     5,618 non-visible faces
    15,119 nodes
     2,391 non-visible nodes
    15,119 expensive split nodes
    15,120 leaves
     7,746 EMPTY leafs
       135 SKY leafs
     5,312 SOLID leafs
     1,912 MIST | Q2_UNUSED_8 leafs
        15 DETAIL_WALL | Q2_UNUSED_8 leafs
    15,120 leafs total
    60 max tree height
    21 avg tree height
    77 tiny portals
    75,020 tree portals
    662 outside leaves
    0 detail filled leafs
    77 tiny portals
    75,020 tree portals
    28,355 sides visible
    26,846 makefaces
    10,667 merged
     1,628 subdivided
    3,027 nodes pruned
    22 tiny portals
     9,131 player-occupiable leaves
     4,605 clusters of leaves
    18,476 vis portals
     2,962 SOLID leafs
       135 SKY leafs
     7,084 EMPTY leafs
     1,912 MIST | Q2_UNUSED_8 leafs
    12,093 leafs total
    60 max tree height
    20 avg tree height
         1 edges degenerated
    11,309 edges added by tjunctions
    15,381 faces optimized through MWT
    43,122 triangles computed from MWT
     3,305 faces created via optimization of MWT triangles
    45,022 edges
    21,112 faces
Processing hull 1...
Processing hull 2...
WARNING: worldspawn at 0 0 0 has long value for key wad (length 1306 >= 127)
Writing lab.bsp as Quake BSP bsp29
Wrote lab.bsp

count   lump name    byte size 
      4 models              256
   8443 planes           168860
  23798 vertexes         285576
  12159 nodes            291816
   5004 texinfos         200160
  21190 faces            423800
  18903 clipnodes        151224
   9202 leafs            257656
  30845 marksurfaces      61690
  45189 edges            180756
  88088 surfedges        352352
     52 textures         606092
        lightdata             0
        visdata               0
        entdata           34037

5.356s seconds elapsed


