---- qbsp / ericw-tools 2.0.0-alpha8-29-gb2f23f76 ----

--- Options Summary ---
    "nocolor" was set to "1" (from command line)

Input file: C:\Users\yn0tm\OneDrive\Documents\GitHub\QuakeMapLab\quake\lab-compile.map
Output file: C:\Users\yn0tm\OneDrive\Documents\GitHub\QuakeMapLab\quake\lab.bsp

INFO: using built-in palette.
WARNING: lab-compile.map[line 6]: Unrecognised string escape - \.
WARNING: lab-compile.map[line 6]: Unrecognised string escape - \e
WARNING: lab-compile.map[line 6]: Unrecognised string escape - \q
WARNING: lab-compile.map[line 6]: Unrecognised string escape - \Q
WARNING: lab-compile.map[line 6]: Unrecognised string escape - \.
WARNING: lab-compile.map[line 6]: Unrecognised string escape - \e
WARNING: lab-compile.map[line 6]: Unrecognised string escape - \q
WARNING: lab-compile.map[line 6]: Unrecognised string escape - \p
WARNING: lab-compile.map[line 6]: Unrecognised string escape - \p
fs::addArchive: WARNING: archive '..\..\extras\quake\trenchbroom-quake-map-source\QUAKE101.WAD' not found
fs::addArchive: WARNING: archive '..\..\extras\quake\prototype-wad\prototype_basic_1_3.wad' not found
WARNING: No valid WAD filenames in worldmodel
      4 entities
      6 unique textures
    110 texinfos
    632 unique planes

INFO: world extents calculated to 2680 units
      238 brushes
    1,518 sides
      189 side bevels

            0 texture frames added
WARNING: unable to find texture skip
WARNING: unable to find texture 128_grey_2
WARNING: unable to find texture 128_blue_1
WARNING: unable to find texture 128_grey_3
WARNING: unable to find texture 128_brown_2
WARNING: unable to find texture 128_blood_1
Processing hull 0...
    238 SOLID brushes
    238 brushes total
    1,518 visible sides
INFO: calculating BSP for 238 brushes with 1518 sides
      238 brushes
    1,518 visible faces
    1,662 nodes
    1,535 expensive split nodes
      127 mid-split nodes
    1,663 leaves
      842 EMPTY leafs
      821 SOLID leafs
    1,663 leafs total
    22 max tree height
    13 avg tree height
    7,041 tree portals
WARNING: Reached occupant "info_player_start" at (-288 0 24), no filling performed.
Leak file written to lab.pts
            9 portals written to lab.leak.prt
    7,041 tree portals
    2,453 sides visible
    2,453 makefaces
      504 merged
    1,071 subdivided
    101 nodes pruned
      842 EMPTY leafs
      720 SOLID leafs
    1,562 leafs total
    22 max tree height
    13 avg tree height
    2,092 edges added by tjunctions
    2,944 faces optimized through MWT
    8,040 triangles computed from MWT
      496 faces created via optimization of MWT triangles
    7,692 edges
    3,516 faces
Processing hull 1...
WARNING: Reached occupant "info_player_start" at (-288 0 24), no filling performed.
Processing hull 2...
WARNING: Reached occupant "info_player_start" at (-288 0 24), no filling performed.
Writing lab.bsp as Quake BSP bsp29
Wrote lab.bsp

count   lump name    byte size 
      1 models               64
    767 planes            15340
   3877 vertexes          46524
   1561 nodes             37464
     81 texinfos           3240
   3516 faces             70320
  26373 clipnodes        210984
    843 leafs             23604
   3938 marksurfaces       7876
   7693 edges             30772
  15148 surfedges         60592
      6 textures             28
        lightdata             0
        visdata               0
        entdata             297

0.381s seconds elapsed


