---- qbsp / ericw-tools 2.0.0-alpha8-29-gb2f23f76 ----

--- Options Summary ---
    "nocolor" was set to "1" (from command line)

Input file: D:\Columbia College Work\Year 2\Semester 1\Game Design II\QuakeMapLab\quake\lab-compile.map
Output file: D:\Columbia College Work\Year 2\Semester 1\Game Design II\QuakeMapLab\quake\lab.bsp

INFO: using built-in palette.
      655 entities
       19 unique textures
    5,150 texinfos
    8,976 unique planes

INFO: world extents calculated to 9048 units
     3,494 brushes
    20,837 sides
     9,480 side bevels

            1 texture frames added
WARNING: unable to find texture skip
Processing hull 0...
    2,010 SOLID brushes
        8 SKY brushes
    1,468 MIST | Q2_UNUSED_8 brushes
    3,486 brushes total
    20,789 visible sides
INFO: calculating BSP for 3486 brushes with 20789 sides
     3,486 brushes
    20,789 visible faces
    20,265 nodes
    18,705 expensive split nodes
     1,560 mid-split nodes
    20,266 leaves
    10,795 EMPTY leafs
       699 SKY leafs
     7,137 SOLID leafs
     1,635 MIST | Q2_UNUSED_8 leafs
    20,266 leafs total
    49 max tree height
    20 avg tree height
    22 tiny portals
    91,790 tree portals
WARNING: Reached occupant "monster_demon1" at (-16 248 -272), no filling performed.
Leak file written to lab.pts
            7 portals written to lab.leak.prt
    22 tiny portals
    91,790 tree portals
    33,449 sides visible
    32,213 makefaces
    10,144 merged
     3,164 subdivided
    1,944 nodes pruned
    10,795 EMPTY leafs
       699 SKY leafs
     5,193 SOLID leafs
     1,635 MIST | Q2_UNUSED_8 leafs
    18,322 leafs total
    47 max tree height
    20 avg tree height
    15,466 edges added by tjunctions
    22,659 faces optimized through MWT
    62,092 triangles computed from MWT
     4,239 faces created via optimization of MWT triangles
    62,736 edges
    29,472 faces
Processing hull 1...
WARNING: Reached occupant "info_player_deathmatch" at (-352 96 472), no filling performed.
Processing hull 2...
WARNING: worldspawn at 0 0 0 has long value for key wad (length 410 >= 127)
LIMITS EXCEEDED ON dclipnode_t::children
NOTE: limits exceeded for Quake BSP - switching to Quake BSP2
Writing lab.bsp as Quake BSP2 bsp2
Wrote lab.bsp

count   lump name    byte size 
      9 models              576
  10092 planes           201840
  37272 vertexes         447264
  18369 nodes            808236
   4464 texinfos         178560
  34176 faces            956928
 139076 clipnodes       1668912
  13186 leafs            580184
  43744 marksurfaces     174976
  72245 edges            577960
 142626 surfedges        570504
     20 textures         222864
        lightdata             0
        visdata               0
        entdata            6933

4.945s seconds elapsed


