---- qbsp / ericw-tools 2.0.0-alpha8-32-g47faf6c0 ----

--- Options Summary ---
    "nocolor" was set to "1" (from command line)

Input file: C:\Users\Mallios\Documents\GitHub\QuakeMapLab\quake\lab-compile.map
Output file: C:\Users\Mallios\Documents\GitHub\QuakeMapLab\quake\lab.bsp

INFO: using built-in palette.
fs::addArchive: WARNING: archive 'D:/quake-leveldesign-starterkit-20240930-windows/extras/quake/prototype-wad/prototype_uniform_colors_1_3.wad' not found
fs::addArchive: WARNING: archive 'D:/quake-leveldesign-starterkit-20240930-windows/extras/quake/prototype-wad/prototype_basic_1_3.wad' not found
fs::addArchive: WARNING: archive 'D:/quake-leveldesign-starterkit-20240930-windows/extras/quake/prototype-wad/prototype_buttons_1_3.wad' not found
fs::addArchive: WARNING: archive 'D:/quake-leveldesign-starterkit-20240930-windows/extras/quake/prototype-wad/prototype_skies_1_3.wad' not found
fs::addArchive: WARNING: archive 'D:/Columbia College Work/Year 2/Semester 1/Game Design II/QuakeMapLab/WADs/praevus.wad' not found
fs::addArchive: WARNING: archive 'D:/Columbia College Work/Year 2/Semester 1/Game Design II/QuakeMapLab/WADs/DktE1.wad' not found
fs::addArchive: WARNING: archive 'D:/Columbia College Work/Year 2/Semester 1/Game Design II/QuakeMapLab/WADs/DktE3.wad' not found
fs::addArchive: WARNING: archive 'D:/Columbia College Work/Year 2/Semester 1/Game Design II/QuakeMapLab/WADs/rmq_trans.wad' not found
fs::addArchive: WARNING: archive 'D:/Columbia College Work/Year 2/Semester 1/Game Design II/QuakeMapLab/WADs/jug.wad' not found
fs::addArchive: WARNING: archive 'D:/Columbia College Work/Year 2/Semester 1/Game Design II/QuakeMapLab/WADs/kj_ogro_ice.wad' not found
    1,090 entities
       46 unique textures
    5,315 texinfos
    8,652 unique planes

INFO: world extents calculated to 5320 units
     3,536 brushes
    20,304 sides
    10,471 side bevels

            0 texture frames added
WARNING: unable to find texture skip
Processing hull 0...
    1,837 SOLID brushes
       10 SKY brushes
    1,658 MIST | Q2_UNUSED_8 brushes
       13 DETAIL_WALL | Q2_UNUSED_8 brushes
    3,518 brushes total
    20,204 visible sides
INFO: calculating BSP for 3518 brushes with 20204 sides
     3,518 brushes
    20,204 visible faces
    21,126 nodes
    17,875 expensive split nodes
     3,251 mid-split nodes
    21,127 leaves
    11,229 EMPTY leafs
       822 SKY leafs
     7,110 SOLID leafs
     1,945 MIST | Q2_UNUSED_8 leafs
        21 DETAIL_WALL | Q2_UNUSED_8 leafs
    21,127 leafs total
    47 max tree height
    20 avg tree height
    44 tiny portals
    94,408 tree portals
    1,519 outside leaves
    0 detail filled leafs
     3,518 brushes
    14,642 visible faces
     5,562 non-visible faces
    14,057 nodes
     2,311 non-visible nodes
    14,057 expensive split nodes
    14,058 leaves
     7,060 EMPTY leafs
       132 SKY leafs
     5,036 SOLID leafs
     1,815 MIST | Q2_UNUSED_8 leafs
        15 DETAIL_WALL | Q2_UNUSED_8 leafs
    14,058 leafs total
    49 max tree height
    21 avg tree height
    19 tiny portals
    68,908 tree portals
    681 outside leaves
    0 detail filled leafs
    19 tiny portals
    68,908 tree portals
    26,203 sides visible
    24,808 makefaces
     9,693 merged
     1,623 subdivided
    2,798 nodes pruned
    2 tiny portals
     8,326 player-occupiable leaves
     4,329 clusters of leaves
    16,859 vis portals
     2,934 SOLID leafs
       132 SKY leafs
     6,379 EMPTY leafs
     1,815 MIST | Q2_UNUSED_8 leafs
    11,260 leafs total
    46 max tree height
    19 avg tree height
    11,014 edges added by tjunctions
    14,828 faces optimized through MWT
    41,754 triangles computed from MWT
     3,290 faces created via optimization of MWT triangles
    42,748 edges
    20,028 faces
Processing hull 1...
Processing hull 2...
WARNING: worldspawn at 0 0 0 has long value for key wad (length 1306 >= 127)
Writing lab.bsp as Quake BSP bsp29
Wrote lab.bsp

count   lump name    byte size 
      4 models              256
   7111 planes           142220
  22651 vertexes         271812
  11319 nodes            271656
   4445 texinfos         177800
  20095 faces            401900
  16759 clipnodes        134072
   8390 leafs            234920
  28858 marksurfaces      57716
  42891 edges            171564
  83992 surfedges        335968
     46 textures         540548
        lightdata             0
        visdata               0
        entdata           34592

4.803s seconds elapsed


