---- qbsp / ericw-tools 2.0.0-alpha8-32-g47faf6c0 ----

--- Options Summary ---
    "nocolor" was set to "1" (from command line)

Input file: C:\Users\Mallios\Documents\GitHub\QuakeMapLab\quake\lab-compile.map
Output file: C:\Users\Mallios\Documents\GitHub\QuakeMapLab\quake\lab.bsp

INFO: using built-in palette.
fs::addArchive: WARNING: archive 'D:/quake-leveldesign-starterkit-20240930-windows/extras/quake/prototype-wad/prototype_uniform_colors_1_3.wad' not found
fs::addArchive: WARNING: archive 'D:/quake-leveldesign-starterkit-20240930-windows/extras/quake/prototype-wad/prototype_basic_1_3.wad' not found
fs::addArchive: WARNING: archive 'D:/quake-leveldesign-starterkit-20240930-windows/extras/quake/prototype-wad/prototype_buttons_1_3.wad' not found
fs::addArchive: WARNING: archive 'D:/quake-leveldesign-starterkit-20240930-windows/extras/quake/prototype-wad/prototype_skies_1_3.wad' not found
fs::addArchive: WARNING: archive 'D:/Columbia College Work/Year 2/Semester 1/Game Design II/QuakeMapLab/WADs/praevus.wad' not found
fs::addArchive: WARNING: archive 'D:/Columbia College Work/Year 2/Semester 1/Game Design II/QuakeMapLab/WADs/DktE1.wad' not found
fs::addArchive: WARNING: archive 'D:/Columbia College Work/Year 2/Semester 1/Game Design II/QuakeMapLab/WADs/DktE3.wad' not found
fs::addArchive: WARNING: archive 'D:/Columbia College Work/Year 2/Semester 1/Game Design II/QuakeMapLab/WADs/rmq_trans.wad' not found
fs::addArchive: WARNING: archive 'D:/Columbia College Work/Year 2/Semester 1/Game Design II/QuakeMapLab/WADs/jug.wad' not found
fs::addArchive: WARNING: archive 'D:/Columbia College Work/Year 2/Semester 1/Game Design II/QuakeMapLab/WADs/kj_ogro_ice.wad' not found
      898 entities
       47 unique textures
    5,250 texinfos
    8,634 unique planes

INFO: world extents calculated to 5320 units
     3,505 brushes
    20,140 sides
    10,421 side bevels

            0 texture frames added
WARNING: unable to find texture skip
WARNING: unable to find texture sky1
Processing hull 0...
    1,844 SOLID brushes
        7 SKY brushes
    1,646 MIST | Q2_UNUSED_8 brushes
    3,497 brushes total
    20,094 visible sides
INFO: calculating BSP for 3497 brushes with 20094 sides
     3,497 brushes
    20,094 visible faces
    20,653 nodes
    18,318 expensive split nodes
     2,335 mid-split nodes
    20,654 leaves
    10,892 EMPTY leafs
       795 SKY leafs
     7,102 SOLID leafs
     1,865 MIST | Q2_UNUSED_8 leafs
    20,654 leafs total
    44 max tree height
    20 avg tree height
    20 tiny portals
    93,149 tree portals
    1,644 outside leaves
    0 detail filled leafs
     3,497 brushes
    14,287 visible faces
     5,807 non-visible faces
    14,112 nodes
     2,418 non-visible nodes
    14,112 expensive split nodes
    14,113 leaves
     7,046 EMPTY leafs
       158 SKY leafs
     5,104 SOLID leafs
     1,805 MIST | Q2_UNUSED_8 leafs
    14,113 leafs total
    48 max tree height
    21 avg tree height
    20 tiny portals
    68,847 tree portals
    730 outside leaves
    0 detail filled leafs
    20 tiny portals
    68,847 tree portals
    25,838 sides visible
    24,472 makefaces
     9,518 merged
     1,541 subdivided
    2,885 nodes pruned
    2 tiny portals
     8,279 player-occupiable leaves
     4,363 clusters of leaves
    16,842 vis portals
     2,949 SOLID leafs
       158 SKY leafs
     6,316 EMPTY leafs
     1,805 MIST | Q2_UNUSED_8 leafs
    11,228 leafs total
    45 max tree height
    19 avg tree height
    10,780 edges added by tjunctions
    14,603 faces optimized through MWT
    41,064 triangles computed from MWT
     3,254 faces created via optimization of MWT triangles
    42,071 edges
    19,749 faces
Processing hull 1...
Processing hull 2...
WARNING: worldspawn at 0 0 0 has long value for key wad (length 1306 >= 127)
Writing lab.bsp as Quake BSP bsp29
Wrote lab.bsp

count   lump name    byte size 
      4 models              256
   7070 planes           141400
  22237 vertexes         266844
  11267 nodes            270408
   4391 texinfos         175640
  19795 faces            395900
  15639 clipnodes        125112
   8323 leafs            233044
  28513 marksurfaces      57026
  42166 edges            168664
  82638 surfedges        330552
     47 textures         540552
        lightdata             0
        visdata               0
        entdata           23370

5.368s seconds elapsed


