---- qbsp / ericw-tools 2.0.0-alpha8-29-gb2f23f76 ----

--- Options Summary ---
    "nocolor" was set to "1" (from command line)

Input file: D:\Columbia College Work\Year 2\Semester 1\Game Design II\QuakeMapLab\quake\lab-compile.map
Output file: D:\Columbia College Work\Year 2\Semester 1\Game Design II\QuakeMapLab\quake\lab.bsp

INFO: using built-in palette.
      745 entities
       16 unique textures
    4,715 texinfos
    8,534 unique planes

INFO: world extents calculated to 9048 units
     3,441 brushes
    19,692 sides
    10,361 side bevels

            0 texture frames added
WARNING: unable to find texture skip
Processing hull 0...
    1,785 SOLID brushes
        7 SKY brushes
    1,646 MIST | Q2_UNUSED_8 brushes
    3,438 brushes total
    19,674 visible sides
INFO: calculating BSP for 3438 brushes with 19674 sides
     3,438 brushes
    19,674 visible faces
    20,702 nodes
    18,445 expensive split nodes
     2,257 mid-split nodes
    20,703 leaves
    10,820 EMPTY leafs
       999 SKY leafs
     7,063 SOLID leafs
     1,821 MIST | Q2_UNUSED_8 leafs
    20,703 leafs total
    46 max tree height
    20 avg tree height
    24 tiny portals
    93,320 tree portals
    1,161 outside leaves
    0 detail filled leafs
     3,438 brushes
    14,486 visible faces
     5,188 non-visible faces
    14,022 nodes
     2,023 non-visible nodes
    14,022 expensive split nodes
    14,023 leaves
     6,978 EMPTY leafs
       284 SKY leafs
     4,953 SOLID leafs
     1,808 MIST | Q2_UNUSED_8 leafs
    14,023 leafs total
    47 max tree height
    21 avg tree height
    21 tiny portals
    68,079 tree portals
    522 outside leaves
    0 detail filled leafs
    21 tiny portals
    68,079 tree portals
    26,283 sides visible
    24,910 makefaces
     9,555 merged
     2,276 subdivided
    2,432 nodes pruned
    1 tiny portals
     8,548 player-occupiable leaves
     4,634 clusters of leaves
    17,589 vis portals
     3,043 SOLID leafs
       284 SKY leafs
     6,456 EMPTY leafs
     1,808 MIST | Q2_UNUSED_8 leafs
    11,591 leafs total
    44 max tree height
    19 avg tree height
    12,352 edges added by tjunctions
    15,735 faces optimized through MWT
    44,882 triangles computed from MWT
     3,665 faces created via optimization of MWT triangles
    45,674 edges
    21,296 faces
Processing hull 1...
Processing hull 2...
WARNING: worldspawn at 0 0 0 has long value for key wad (length 410 >= 127)
Writing lab.bsp as Quake BSP bsp29
Wrote lab.bsp

count   lump name    byte size 
      4 models              256
   7003 planes           140060
  28706 vertexes         344472
  11608 nodes            278592
   3988 texinfos         159520
  25970 faces            519400
  16743 clipnodes        133944
   8570 leafs            239960
  34718 marksurfaces      69436
  55123 edges            220492
 108266 surfedges        433064
     16 textures         213168
        lightdata             0
        visdata               0
        entdata           10106

5.825s seconds elapsed


